25195294
  -OEChem-08302616533D

 53 58  0     0  0  0  0  0  0999 V2000
   -6.4068   -0.3984    0.0159 N   0  0  0  0  0  0  0  0  0  0  0  0
   -9.2332   -0.7489   -0.1779 N   0  0  0  0  0  0  0  0  0  0  0  0
    1.1518    1.7355    0.4799 N   0  0  0  0  0  0  0  0  0  0  0  0
    1.4383   -0.3029   -0.7590 N   0  0  0  0  0  0  0  0  0  0  0  0
    1.8861    2.7471    1.0134 N   0  0  0  0  0  0  0  0  0  0  0  0
    6.6455   -0.6909   -1.6287 N   0  0  0  0  0  0  0  0  0  0  0  0
   -7.2982    0.7686    0.0608 C   0  0  0  0  0  0  0  0  0  0  0  0
   -6.9559   -1.5936   -0.6337 C   0  0  0  0  0  0  0  0  0  0  0  0
   -8.6774    0.3686    0.5838 C   0  0  0  0  0  0  0  0  0  0  0  0
   -8.3480   -1.9088   -0.0872 C   0  0  0  0  0  0  0  0  0  0  0  0
   -5.0258   -0.1717   -0.0017 C   0  0  0  0  0  0  0  0  0  0  0  0
   -4.4176    0.5105    1.0521 C   0  0  0  0  0  0  0  0  0  0  0  0
   -4.2578   -0.6277   -1.0731 C   0  0  0  0  0  0  0  0  0  0  0  0
   -2.2732    0.2802   -0.0367 C   0  0  0  0  0  0  0  0  0  0  0  0
   -3.0413    0.7364    1.0345 C   0  0  0  0  0  0  0  0  0  0  0  0
   -2.8815   -0.4017   -1.0905 C   0  0  0  0  0  0  0  0  0  0  0  0
   -0.8226    0.5186   -0.0552 C   0  0  0  0  0  0  0  0  0  0  0  0
    1.9641    0.7974   -0.1537 C   0  0  0  0  0  0  0  0  0  0  0  0
    3.2581    1.2431   -0.0097 C   0  0  0  0  0  0  0  0  0  0  0  0
   -0.2315    1.5789    0.5199 C   0  0  0  0  0  0  0  0  0  0  0  0
    4.4185    0.5600   -0.5252 C   0  0  0  0  0  0  0  0  0  0  0  0
    0.1457   -0.4201   -0.7057 C   0  0  0  0  0  0  0  0  0  0  0  0
    5.1221   -0.3992    0.2156 C   0  0  0  0  0  0  0  0  0  0  0  0
    3.1470    2.4389    0.7121 C   0  0  0  0  0  0  0  0  0  0  0  0
    6.2450   -1.0081   -0.3829 C   0  0  0  0  0  0  0  0  0  0  0  0
    4.8288    0.8889   -1.8091 C   0  0  0  0  0  0  0  0  0  0  0  0
    4.7321   -0.7546    1.5181 C   0  0  0  0  0  0  0  0  0  0  0  0
    5.9390    0.2399   -2.3100 C   0  0  0  0  0  0  0  0  0  0  0  0
    6.9435   -1.9610    0.3536 C   0  0  0  0  0  0  0  0  0  0  0  0
    5.4490   -1.7108    2.2317 C   0  0  0  0  0  0  0  0  0  0  0  0
    6.5560   -2.3144    1.6485 C   0  0  0  0  0  0  0  0  0  0  0  0
   -6.9025    1.5577    0.7104 H   0  0  0  0  0  0  0  0  0  0  0  0
   -7.3851    1.1933   -0.9477 H   0  0  0  0  0  0  0  0  0  0  0  0
   -6.3135   -2.4642   -0.4519 H   0  0  0  0  0  0  0  0  0  0  0  0
   -7.0151   -1.4346   -1.7181 H   0  0  0  0  0  0  0  0  0  0  0  0
   -9.3545    1.2262    0.5058 H   0  0  0  0  0  0  0  0  0  0  0  0
   -8.6165    0.1029    1.6467 H   0  0  0  0  0  0  0  0  0  0  0  0
   -8.2778   -2.2435    0.9555 H   0  0  0  0  0  0  0  0  0  0  0  0
   -8.7811   -2.7357   -0.6604 H   0  0  0  0  0  0  0  0  0  0  0  0
  -10.1474   -0.9930    0.2019 H   0  0  0  0  0  0  0  0  0  0  0  0
   -4.9964    0.8579    1.9040 H   0  0  0  0  0  0  0  0  0  0  0  0
   -4.7010   -1.1457   -1.9188 H   0  0  0  0  0  0  0  0  0  0  0  0
   -2.5989    1.2526    1.8824 H   0  0  0  0  0  0  0  0  0  0  0  0
   -2.3161   -0.7491   -1.9509 H   0  0  0  0  0  0  0  0  0  0  0  0
   -0.7734    2.3669    1.0304 H   0  0  0  0  0  0  0  0  0  0  0  0
   -0.2914   -1.3182   -1.1704 H   0  0  0  0  0  0  0  0  0  0  0  0
    3.9331    3.1064    1.0361 H   0  0  0  0  0  0  0  0  0  0  0  0
    4.3099    1.6263   -2.4131 H   0  0  0  0  0  0  0  0  0  0  0  0
    3.8728   -0.3048    2.0085 H   0  0  0  0  0  0  0  0  0  0  0  0
    6.3063    0.4559   -3.3079 H   0  0  0  0  0  0  0  0  0  0  0  0
    7.8143   -2.4486   -0.0809 H   0  0  0  0  0  0  0  0  0  0  0  0
    5.1451   -1.9830    3.2378 H   0  0  0  0  0  0  0  0  0  0  0  0
    7.1212   -3.0615    2.1981 H   0  0  0  0  0  0  0  0  0  0  0  0
  1  7  1  0  0  0  0
  1  8  1  0  0  0  0
  1 11  1  0  0  0  0
  2  9  1  0  0  0  0
  2 10  1  0  0  0  0
  2 40  1  0  0  0  0
  3  5  1  0  0  0  0
  3 18  1  0  0  0  0
  3 20  1  0  0  0  0
  4 18  1  0  0  0  0
  4 22  2  0  0  0  0
  5 24  2  0  0  0  0
  6 25  1  0  0  0  0
  6 28  2  0  0  0  0
  7  9  1  0  0  0  0
  7 32  1  0  0  0  0
  7 33  1  0  0  0  0
  8 10  1  0  0  0  0
  8 34  1  0  0  0  0
  8 35  1  0  0  0  0
  9 36  1  0  0  0  0
  9 37  1  0  0  0  0
 10 38  1  0  0  0  0
 10 39  1  0  0  0  0
 11 12  2  0  0  0  0
 11 13  1  0  0  0  0
 12 15  1  0  0  0  0
 12 41  1  0  0  0  0
 13 16  2  0  0  0  0
 13 42  1  0  0  0  0
 14 15  2  0  0  0  0
 14 16  1  0  0  0  0
 14 17  1  0  0  0  0
 15 43  1  0  0  0  0
 16 44  1  0  0  0  0
 17 20  2  0  0  0  0
 17 22  1  0  0  0  0
 18 19  2  0  0  0  0
 19 21  1  0  0  0  0
 19 24  1  0  0  0  0
 20 45  1  0  0  0  0
 21 23  1  0  0  0  0
 21 26  2  0  0  0  0
 22 46  1  0  0  0  0
 23 25  1  0  0  0  0
 23 27  2  0  0  0  0
 24 47  1  0  0  0  0
 25 29  2  0  0  0  0
 26 28  1  0  0  0  0
 26 48  1  0  0  0  0
 27 30  1  0  0  0  0
 27 49  1  0  0  0  0
 28 50  1  0  0  0  0
 29 31  1  0  0  0  0
 29 51  1  0  0  0  0
 30 31  2  0  0  0  0
 30 52  1  0  0  0  0
 31 53  1  0  0  0  0
M  END
> <PUBCHEM_COMPOUND_CID>
25195294

> <PUBCHEM_CONFORMER_RMSD>
0.8

> <PUBCHEM_CONFORMER_DIVERSEORDER>
1
3
5
4
2

> <PUBCHEM_MMFF94_PARTIAL_CHARGES>
44
1 -0.84
10 0.27
11 0.1
12 -0.15
13 -0.15
14 0.03
15 -0.15
16 -0.15
17 -0.01
18 -0.03
19 -0.05
2 -0.9
20 -0.18
21 0.05
22 0.38
24 0.14
25 0.31
26 -0.15
27 -0.15
28 0.16
29 -0.15
3 0.6
30 -0.15
31 -0.15
4 -0.58
40 0.36
41 0.15
42 0.15
43 0.15
44 0.15
45 0.15
46 0.06
47 0.15
48 0.15
49 0.15
5 -0.71
50 0.15
51 0.15
52 0.15
53 0.15
6 -0.62
7 0.37
8 0.37
9 0.27

> <PUBCHEM_EFFECTIVE_ROTOR_COUNT>
4.2

> <PUBCHEM_PHARMACOPHORE_FEATURES>
12
1 1 cation
1 2 cation
1 2 donor
1 4 acceptor
1 5 acceptor
1 6 acceptor
5 3 5 18 19 24 rings
6 1 2 7 8 9 10 rings
6 11 12 13 14 15 16 rings
6 23 25 27 29 30 31 rings
6 3 4 17 18 20 22 rings
6 6 21 23 25 26 28 rings

> <PUBCHEM_HEAVY_ATOM_COUNT>
31

> <PUBCHEM_ATOM_DEF_STEREO_COUNT>
0

> <PUBCHEM_ATOM_UDEF_STEREO_COUNT>
0

> <PUBCHEM_BOND_DEF_STEREO_COUNT>
0

> <PUBCHEM_BOND_UDEF_STEREO_COUNT>
0

> <PUBCHEM_ISOTOPIC_ATOM_COUNT>
0

> <PUBCHEM_COMPONENT_COUNT>
1

> <PUBCHEM_CACTVS_TAUTO_COUNT>
1

> <PUBCHEM_CONFORMER_ID>
0180731E00000001

> <PUBCHEM_MMFF94_ENERGY>
104.9914

> <PUBCHEM_FEATURE_SELFOVERLAP>
61.061

> <PUBCHEM_SHAPE_FINGERPRINT>
10 15 16486967414436885106
10050765 1 17913486015780764503
10299344 5 18186803578264904135
10319688 140 15141505962088005656
10533779 47 16128392484334563743
11135926 11 17846775192766098687
11386260 185 16443348710157830327
11409948 35 17677322802552029451
11456790 92 17989216958472257665
11578821 258 9727642700804351219
11607047 74 18340772641980364644
11719270 70 17775288265946642263
12166972 35 18335422404597118757
125118 31 10303824180783849107
12539765 74 7925642132847174153
12592606 108 18411982446783329091
13533116 47 17894348869922994088
13553643 46 13110971899222470659
13692114 37 17632572781563525919
13782708 43 18336540607921852167
14118638 360 12468626215200212247
14347424 109 17988920110842814552
14400156 188 13829311407365549724
150020 25 15285361700006115291
15131766 46 17980758565143323861
15183329 4 18411144631707385417
15198563 99 15864345792782655223
15352257 5 17821729451102924091
15419008 91 17560223757336830601
17324776 126 15435347004701398234
1754908 1 14979676633141717199
18365409 1 12757732957685370505
19301679 30 18128254485444301374
20028762 73 17775288265835892070
2026 5 17459457858699631338
20578428 11 18339361993957432120
20771845 140 18059565855069008374
21267235 1 17917439743682974789
21344244 78 17132111347335919056
21360442 67 15936413346849670802
21781051 124 18337961185403569707
21792934 111 16272211877922378273
22224240 67 13901907808902004781
22956985 138 17838060308611912350
23522609 53 18119278140707815508
23559900 14 17022911193416719693
23569943 247 18115297879008905875
24893992 56 18272369798685762003
25025965 108 17702370949282059991
3004659 81 18201443600905221980
3383291 50 17561083627238260559
3411729 13 17773585209115635920
34797466 226 15791733018313010940
397638 26 16988842796277622231
397830 11 14548724162419065726
3986486 107 14346076353207782478
4073 2 18120089743359753601
4098825 35 17241040999249265213
439807 62 18113336392718357010
5080951 261 14404888195253985141
5104073 3 17774441710622664459
57527295 17 14998241702587922296
5758199 1 10953455233224695957
59520757 100 18049999991621321529
59682541 52 16515405149572273538
60111433 81 8285323138391359610
6081469 158 18260827095178240765
6438161 24 18334007294381746866
68570916 9 12895056445282749557
9962374 69 17988919028457944516

> <PUBCHEM_SHAPE_MULTIPOLES>
608.08
26.95
2.07
1.59
41.17
0.01
0.18
-14.78
1.36
-2.61
-0.88
-3
-0.16
-2.44

> <PUBCHEM_SHAPE_SELFOVERLAP>
1369.76

> <PUBCHEM_SHAPE_VOLUME>
312.7

> <PUBCHEM_COORDINATE_TYPE>
2
5
10

$$$$
